Global frequency set at 1000000000000 ticks per second
Create function
Constructor
Redirecting stdout to /data/home/ama225/CMPT-450-Project/results/X86/run_micro/CCa/Simple/Inf/simout
Redirecting stderr to /data/home/ama225/CMPT-450-Project/results/X86/run_micro/CCa/Simple/Inf/simerr
gem5 Simulator System.  http://gem5.org
gem5 is copyrighted software; use the --copyright option for details.

gem5 version 20.1.0.2
gem5 compiled Nov 28 2023 08:58:13
gem5 started Nov 28 2023 08:59:09
gem5 executing on ARCH-750, pid 1859003
command line: build/X86/gem5.opt -re --outdir=/data/home/ama225/CMPT-450-Project/results/X86/run_micro/CCa/Simple/Inf --debug-flags=Event,ExecAll --debug-file=trace.out --debug-start=0 gem5-config/run_micro.py Simple Inf microbenchmark/CCa/bench.X86

info: Standard input is not a terminal, disabling listeners.
1GHz
uncondBranch
Update history taken
Update
lookup
Weight hash
