Global frequency set at 1000000000000 ticks per second
Create function
Redirecting stdout to /data/home/ama225/CMPT-450-Project/results/X86/run_micro/CCa/Simple/Inf/simout
Redirecting stderr to /data/home/ama225/CMPT-450-Project/results/X86/run_micro/CCa/Simple/Inf/simerr
gem5 Simulator System.  http://gem5.org
gem5 is copyrighted software; use the --copyright option for details.

gem5 version 20.1.0.2
gem5 compiled Dec  2 2023 20:36:59
gem5 started Dec  2 2023 20:37:31
gem5 executing on ARCH-750, pid 2180518
command line: build/X86/gem5.opt -re --outdir=/data/home/ama225/CMPT-450-Project/results/X86/run_micro/CCa/Simple/Inf --debug-flags=Event,ExecAll --debug-file=trace.out --debug-start=0 gem5-config/run_micro.py Simple Inf microbenchmark/CCa/bench.X86

info: Standard input is not a terminal, disabling listeners.
1GHz
Exit Eventexiting with last active thread context
Terminated simulation before reaching ROI!
Performance statistics:
Simulated time: 0.00s
Instructions executed: 49464
Ran a total of 4e-09 simulated seconds
Total wallclock time: 9.38s, 0.16 min
