
---------- Begin Simulation Statistics ----------
final_tick                                       4000                       # Number of ticks from beginning of simulation (restored from checkpoints and never reset)
host_inst_rate                                   5277                       # Simulator instruction rate (inst/s)
host_mem_usage                                2209472                       # Number of bytes of host memory used
host_op_rate                                     9629                       # Simulator op (including micro ops) rate (op/s)
host_seconds                                     9.37                       # Real time elapsed on the host
host_tick_rate                                    427                       # Simulator tick rate (ticks/s)
sim_freq                                 1000000000000                       # Frequency of simulated ticks
sim_insts                                       49464                       # Number of instructions simulated
sim_ops                                         90253                       # Number of ops (including micro ops) simulated
sim_seconds                                  0.000000                       # Number of seconds simulated
sim_ticks                                        4000                       # Number of ticks simulated
system.cpu.BranchMispred                          583                       # Number of branch mispredictions
system.cpu.Branches                              9985                       # Number of branches fetched
system.cpu.committedInsts                       49464                       # Number of instructions committed
system.cpu.committedOps                         90253                       # Number of ops (including micro ops) committed
system.cpu.idle_fraction                     0.000250                       # Percentage of idle cycles
system.cpu.not_idle_fraction                 0.999750                       # Percentage of non-idle cycles
system.cpu.numCycles                                4                       # number of cpu cycles simulated
system.cpu.numWorkItemsCompleted                    0                       # number of work items this cpu completed
system.cpu.numWorkItemsStarted                      0                       # number of work items this cpu started
system.cpu.num_busy_cycles                   3.999000                       # Number of busy cycles
system.cpu.num_cc_register_reads                49921                       # number of times the CC registers were read
system.cpu.num_cc_register_writes               38177                       # number of times the CC registers were written
system.cpu.num_conditional_control_insts         9540                       # number of instructions that are conditional controls
system.cpu.num_fp_alu_accesses                   1150                       # Number of float alu accesses
system.cpu.num_fp_insts                          1150                       # number of float instructions
system.cpu.num_fp_register_reads                 1322                       # number of times the floating registers were read
system.cpu.num_fp_register_writes                 637                       # number of times the floating registers were written
system.cpu.num_func_calls                         290                       # number of times a function call or return occured
system.cpu.num_idle_cycles                   0.001000                       # Number of idle cycles
system.cpu.num_int_alu_accesses                 89477                       # Number of integer alu accesses
system.cpu.num_int_insts                        89477                       # number of integer instructions
system.cpu.num_int_register_reads              144965                       # number of times the integer registers were read
system.cpu.num_int_register_writes              77820                       # number of times the integer registers were written
system.cpu.num_load_insts                        1537                       # Number of load instructions
system.cpu.num_mem_refs                          3165                       # number of memory refs
system.cpu.num_store_insts                       1628                       # Number of store instructions
system.cpu.num_vec_alu_accesses                     0                       # Number of vector alu accesses
system.cpu.num_vec_insts                            0                       # number of vector instructions
system.cpu.num_vec_register_reads                   0                       # number of times the vector registers were read
system.cpu.num_vec_register_writes                  0                       # number of times the vector registers were written
system.cpu.op_class::No_OpClass                   317      0.35%      0.35% # Class of executed instruction
system.cpu.op_class::IntAlu                     86268     95.57%     95.92% # Class of executed instruction
system.cpu.op_class::IntMult                        5      0.01%     95.93% # Class of executed instruction
system.cpu.op_class::IntDiv                        21      0.02%     95.95% # Class of executed instruction
system.cpu.op_class::FloatAdd                     135      0.15%     96.10% # Class of executed instruction
system.cpu.op_class::FloatCmp                       0      0.00%     96.10% # Class of executed instruction
system.cpu.op_class::FloatCvt                       0      0.00%     96.10% # Class of executed instruction
system.cpu.op_class::FloatMult                      0      0.00%     96.10% # Class of executed instruction
system.cpu.op_class::FloatMultAcc                   0      0.00%     96.10% # Class of executed instruction
system.cpu.op_class::FloatDiv                       0      0.00%     96.10% # Class of executed instruction
system.cpu.op_class::FloatMisc                      0      0.00%     96.10% # Class of executed instruction
system.cpu.op_class::FloatSqrt                      0      0.00%     96.10% # Class of executed instruction
system.cpu.op_class::SimdAdd                        0      0.00%     96.10% # Class of executed instruction
system.cpu.op_class::SimdAddAcc                     0      0.00%     96.10% # Class of executed instruction
system.cpu.op_class::SimdAlu                       94      0.10%     96.20% # Class of executed instruction
system.cpu.op_class::SimdCmp                        0      0.00%     96.20% # Class of executed instruction
system.cpu.op_class::SimdCvt                       46      0.05%     96.26% # Class of executed instruction
system.cpu.op_class::SimdMisc                     215      0.24%     96.49% # Class of executed instruction
system.cpu.op_class::SimdMult                       0      0.00%     96.49% # Class of executed instruction
system.cpu.op_class::SimdMultAcc                    0      0.00%     96.49% # Class of executed instruction
system.cpu.op_class::SimdShift                      0      0.00%     96.49% # Class of executed instruction
system.cpu.op_class::SimdShiftAcc                   0      0.00%     96.49% # Class of executed instruction
system.cpu.op_class::SimdDiv                        0      0.00%     96.49% # Class of executed instruction
system.cpu.op_class::SimdSqrt                       0      0.00%     96.49% # Class of executed instruction
system.cpu.op_class::SimdFloatAdd                   0      0.00%     96.49% # Class of executed instruction
system.cpu.op_class::SimdFloatAlu                   0      0.00%     96.49% # Class of executed instruction
system.cpu.op_class::SimdFloatCmp                   0      0.00%     96.49% # Class of executed instruction
system.cpu.op_class::SimdFloatCvt                   0      0.00%     96.49% # Class of executed instruction
system.cpu.op_class::SimdFloatDiv                   0      0.00%     96.49% # Class of executed instruction
system.cpu.op_class::SimdFloatMisc                  0      0.00%     96.49% # Class of executed instruction
system.cpu.op_class::SimdFloatMult                  0      0.00%     96.49% # Class of executed instruction
system.cpu.op_class::SimdFloatMultAcc               0      0.00%     96.49% # Class of executed instruction
system.cpu.op_class::SimdFloatSqrt                  0      0.00%     96.49% # Class of executed instruction
system.cpu.op_class::SimdReduceAdd                  0      0.00%     96.49% # Class of executed instruction
system.cpu.op_class::SimdReduceAlu                  0      0.00%     96.49% # Class of executed instruction
system.cpu.op_class::SimdReduceCmp                  0      0.00%     96.49% # Class of executed instruction
system.cpu.op_class::SimdFloatReduceAdd             0      0.00%     96.49% # Class of executed instruction
system.cpu.op_class::SimdFloatReduceCmp             0      0.00%     96.49% # Class of executed instruction
system.cpu.op_class::SimdAes                        0      0.00%     96.49% # Class of executed instruction
system.cpu.op_class::SimdAesMix                     0      0.00%     96.49% # Class of executed instruction
system.cpu.op_class::SimdSha1Hash                   0      0.00%     96.49% # Class of executed instruction
system.cpu.op_class::SimdSha1Hash2                  0      0.00%     96.49% # Class of executed instruction
system.cpu.op_class::SimdSha256Hash                 0      0.00%     96.49% # Class of executed instruction
system.cpu.op_class::SimdSha256Hash2                0      0.00%     96.49% # Class of executed instruction
system.cpu.op_class::SimdShaSigma2                  0      0.00%     96.49% # Class of executed instruction
system.cpu.op_class::SimdShaSigma3                  0      0.00%     96.49% # Class of executed instruction
system.cpu.op_class::SimdPredAlu                    0      0.00%     96.49% # Class of executed instruction
system.cpu.op_class::MemRead                     1483      1.64%     98.14% # Class of executed instruction
system.cpu.op_class::MemWrite                    1161      1.29%     99.42% # Class of executed instruction
system.cpu.op_class::FloatMemRead                  54      0.06%     99.48% # Class of executed instruction
system.cpu.op_class::FloatMemWrite                467      0.52%    100.00% # Class of executed instruction
system.cpu.op_class::IprAccess                      0      0.00%    100.00% # Class of executed instruction
system.cpu.op_class::InstPrefetch                   0      0.00%    100.00% # Class of executed instruction
system.cpu.op_class::total                      90266                       # Class of executed instruction
system.cpu.predictedBranches                     9033                       # Number of branches predicted as taken
system.cpu.workload.numSyscalls                    10                       # Number of system calls
system.interrupt_xbar.snoop_filter.hit_multi_requests            0                       # Number of requests hitting in the snoop filter with multiple (>1) holders of the requested data.
system.interrupt_xbar.snoop_filter.hit_multi_snoops            0                       # Number of snoops hitting in the snoop filter with multiple (>1) holders of the requested data.
system.interrupt_xbar.snoop_filter.hit_single_requests            0                       # Number of requests hitting in the snoop filter with a single holder of the requested data.
system.interrupt_xbar.snoop_filter.hit_single_snoops            0                       # Number of snoops hitting in the snoop filter with a single holder of the requested data.
system.interrupt_xbar.snoop_filter.tot_requests            0                       # Total number of requests made to the snoop filter.
system.interrupt_xbar.snoop_filter.tot_snoops            0                       # Total number of snoops made to the snoop filter.
system.clk_domain.clock                          1000                       # Clock period in ticks
system.clk_domain.voltage_domain.voltage            1                       # Voltage in Volts
system.cpu.branchPred.lookups                    9985                       # Number of BP lookups
system.cpu.branchPred.condPredicted              9540                       # Number of conditional branches predicted
system.cpu.branchPred.condIncorrect               583                       # Number of conditional branches incorrect
system.cpu.branchPred.BTBLookups                 9766                       # Number of BTB lookups
system.cpu.branchPred.BTBHits                    8887                       # Number of BTB hits
system.cpu.branchPred.BTBHitPct             90.999386                       # BTB Hit Percentage
system.cpu.branchPred.RASUsed                     143                       # Number of times the RAS was used to get a target.
system.cpu.branchPred.RASIncorrect                  0                       # Number of incorrect RAS predictions.
system.cpu.branchPred.indirectLookups              76                       # Number of indirect predictor lookups.
system.cpu.branchPred.indirectHits                  3                       # Number of indirect target hits.
system.cpu.branchPred.indirectMisses               73                       # Number of indirect misses.
system.cpu.branchPred.indirectMispredicted           75                       # Number of mispredicted indirect branches.
system.cpu.dtb.rdAccesses                        1540                       # TLB accesses on read requests
system.cpu.dtb.wrAccesses                        1629                       # TLB accesses on write requests
system.cpu.dtb.rdMisses                            11                       # TLB misses on read requests
system.cpu.dtb.wrMisses                             9                       # TLB misses on write requests
system.cpu.dtb.walker.power_state.pwrStateResidencyTicks::UNDEFINED         4000                       # Cumulative time (in ticks) in various power states
system.cpu.interrupts.clk_domain.clock          16000                       # Clock period in ticks
system.cpu.itb.rdAccesses                           0                       # TLB accesses on read requests
system.cpu.itb.wrAccesses                       60332                       # TLB accesses on write requests
system.cpu.itb.rdMisses                             0                       # TLB misses on read requests
system.cpu.itb.wrMisses                            37                       # TLB misses on write requests
system.cpu.itb.walker.power_state.pwrStateResidencyTicks::UNDEFINED         4000                       # Cumulative time (in ticks) in various power states
system.cpu.power_state.pwrStateResidencyTicks::ON         4000                       # Cumulative time (in ticks) in various power states
system.cpu.thread_0.numInsts                        0                       # Number of Instructions committed
system.cpu.thread_0.numOps                          0                       # Number of Ops committed
system.cpu.thread_0.numMemRefs                      0                       # Number of Memory References
system.interrupt_xbar.snoops                        0                       # Total snoops (count)
system.interrupt_xbar.snoopTraffic                  0                       # Total snoop traffic (bytes)
system.interrupt_xbar.snoop_fanout::samples            0                       # Request fanout histogram
system.interrupt_xbar.snoop_fanout::mean          nan                       # Request fanout histogram
system.interrupt_xbar.snoop_fanout::stdev          nan                       # Request fanout histogram
system.interrupt_xbar.snoop_fanout::underflows            0                       # Request fanout histogram
system.interrupt_xbar.snoop_fanout::0               0                       # Request fanout histogram
system.interrupt_xbar.snoop_fanout::overflows            0                       # Request fanout histogram
system.interrupt_xbar.snoop_fanout::min_value            0                       # Request fanout histogram
system.interrupt_xbar.snoop_fanout::max_value            0                       # Request fanout histogram
system.interrupt_xbar.snoop_fanout::total            0                       # Request fanout histogram
system.interrupt_xbar.power_state.pwrStateResidencyTicks::UNDEFINED         4000                       # Cumulative time (in ticks) in various power states
system.mem_ctrl.bytes_read::.cpu.inst          482656                       # Number of bytes read from this memory
system.mem_ctrl.bytes_read::.cpu.data            9814                       # Number of bytes read from this memory
system.mem_ctrl.bytes_read::total              492470                       # Number of bytes read from this memory
system.mem_ctrl.bytes_inst_read::.cpu.inst       482656                       # Number of instructions bytes read from this memory
system.mem_ctrl.bytes_inst_read::total         482656                       # Number of instructions bytes read from this memory
system.mem_ctrl.bytes_written::.cpu.data        12258                       # Number of bytes written to this memory
system.mem_ctrl.bytes_written::total            12258                       # Number of bytes written to this memory
system.mem_ctrl.num_reads::.cpu.inst            60332                       # Number of read requests responded to by this memory
system.mem_ctrl.num_reads::.cpu.data             1539                       # Number of read requests responded to by this memory
system.mem_ctrl.num_reads::total                61871                       # Number of read requests responded to by this memory
system.mem_ctrl.num_writes::.cpu.data            1627                       # Number of write requests responded to by this memory
system.mem_ctrl.num_writes::total                1627                       # Number of write requests responded to by this memory
system.mem_ctrl.bw_read::.cpu.inst       120664000000000                       # Total read bandwidth from this memory (bytes/s)
system.mem_ctrl.bw_read::.cpu.data       2453500000000                       # Total read bandwidth from this memory (bytes/s)
system.mem_ctrl.bw_read::total           123117500000000                       # Total read bandwidth from this memory (bytes/s)
system.mem_ctrl.bw_inst_read::.cpu.inst  120664000000000                       # Instruction read bandwidth from this memory (bytes/s)
system.mem_ctrl.bw_inst_read::total      120664000000000                       # Instruction read bandwidth from this memory (bytes/s)
system.mem_ctrl.bw_write::.cpu.data      3064500000000                       # Write bandwidth from this memory (bytes/s)
system.mem_ctrl.bw_write::total          3064500000000                       # Write bandwidth from this memory (bytes/s)
system.mem_ctrl.bw_total::.cpu.inst      120664000000000                       # Total bandwidth to/from this memory (bytes/s)
system.mem_ctrl.bw_total::.cpu.data      5518000000000                       # Total bandwidth to/from this memory (bytes/s)
system.mem_ctrl.bw_total::total          126182000000000                       # Total bandwidth to/from this memory (bytes/s)
system.mem_ctrl.power_state.pwrStateResidencyTicks::UNDEFINED         4000                       # Cumulative time (in ticks) in various power states

---------- End Simulation Statistics   ----------
